<?xml version="1.0" encoding="UTF-8"?>

<!-- generated on Sun May  2 22:09:07 2021 by Eclipse SUMO duarouter Version 1.9.0
<configuration xmlns:xsi="http://www.w3.org/2001/XMLSchema-instance" xsi:noNamespaceSchemaLocation="http://sumo.dlr.de/xsd/duarouterConfiguration.xsd">

    <input>
        <net-file value="C:\Users\SysSoft\Sumo\2021-05-02-22-08-50\osm.net.xml"/>
        <route-files value="C:\Users\SysSoft\Sumo\2021-05-02-22-08-50\osm.passenger.trips.xml"/>
    </input>

    <output>
        <output-file value="C:\Users\SysSoft\Sumo\2021-05-02-22-08-50\osm.passenger.trips.xml.tmp"/>
        <write-trips value="true"/>
    </output>

    <time>
        <begin value="0"/>
        <end value="3600"/>
    </time>

    <report>
        <no-warnings value="true"/>
        <ignore-errors value="true"/>
        <no-step-log value="true"/>
    </report>

</configuration>
-->

<routes xmlns:xsi="http://www.w3.org/2001/XMLSchema-instance" xsi:noNamespaceSchemaLocation="http://sumo.dlr.de/xsd/routes_file.xsd">
    <vType id="veh_passenger" vClass="passenger"/>
    <trip id="veh0" type="veh_passenger" depart="0.00" departLane="best" from="340498982#0" to="-137630045"/>
    <trip id="veh1" type="veh_passenger" depart="2.42" departLane="best" departSpeed="max" from="-55741054" to="-66071373#3"/>
    <trip id="veh2" type="veh_passenger" depart="4.84" departLane="best" from="54048863" to="-23809670#3"/>
    <trip id="veh3" type="veh_passenger" depart="7.26" departLane="best" departSpeed="max" from="158023913#0" to="-156364570#4"/>
    <trip id="veh4" type="veh_passenger" depart="9.67" departLane="best" departSpeed="max" from="-437325051" to="24243092#0"/>
    <trip id="veh5" type="veh_passenger" depart="12.09" departLane="best" from="-156364570#0" to="-4773029#1"/>
    <trip id="veh6" type="veh_passenger" depart="14.51" departLane="best" from="340498982#8" to="25294729#1"/>
    <trip id="veh7" type="veh_passenger" depart="16.93" departLane="best" departSpeed="max" from="4610374" to="-111833185#1"/>
    <trip id="veh8" type="veh_passenger" depart="19.35" departLane="best" departSpeed="max" from="4610374" to="427637455"/>
    <trip id="veh9" type="veh_passenger" depart="21.77" departLane="best" from="114667396#0" to="-4610375"/>
    <trip id="veh10" type="veh_passenger" depart="24.18" departLane="best" from="831694400" to="156364570#0"/>
    <trip id="veh11" type="veh_passenger" depart="26.60" departLane="best" departSpeed="max" from="-202156991#2" to="-28251222#1"/>
    <trip id="veh12" type="veh_passenger" depart="29.02" departLane="best" from="4611699" to="327518240"/>
    <trip id="veh13" type="veh_passenger" depart="31.44" departLane="best" departSpeed="max" from="4610374" to="437325047#3"/>
    <trip id="veh14" type="veh_passenger" depart="33.86" departLane="best" departSpeed="max" from="243854725#0" to="751595929#0"/>
    <trip id="veh15" type="veh_passenger" depart="36.28" departLane="best" departSpeed="max" from="156364553#0" to="25294729#1"/>
    <trip id="veh16" type="veh_passenger" depart="38.70" departLane="best" departSpeed="max" from="4610375" to="340498976#4"/>
    <trip id="veh17" type="veh_passenger" depart="41.11" departLane="best" departSpeed="max" from="4773029#0" to="30720544#0"/>
    <trip id="veh18" type="veh_passenger" depart="43.53" departLane="best" departSpeed="max" from="-454285423#1" to="-882389497"/>
    <trip id="veh19" type="veh_passenger" depart="45.95" departLane="best" from="-195411605#1" to="-751595930"/>
    <trip id="veh20" type="veh_passenger" depart="48.37" departLane="best" from="-23121445#5" to="-751595930"/>
    <trip id="veh21" type="veh_passenger" depart="50.79" departLane="best" departSpeed="max" from="156364553#0" to="-62363401"/>
    <trip id="veh22" type="veh_passenger" depart="53.21" departLane="best" departSpeed="max" from="-51167934#3" to="72157174#0"/>
    <trip id="veh23" type="veh_passenger" depart="55.62" departLane="best" from="340498982#3" to="339201185"/>
    <trip id="veh24" type="veh_passenger" depart="58.04" departLane="best" departSpeed="max" from="-34848160#3" to="437325047#3"/>
    <trip id="veh25" type="veh_passenger" depart="60.46" departLane="best" from="-330840125#1" to="188386313#0"/>
    <trip id="veh26" type="veh_passenger" depart="62.88" departLane="best" departSpeed="max" from="24914992#0" to="42103021"/>
    <trip id="veh27" type="veh_passenger" depart="65.30" departLane="best" from="4610480" to="4611693#2"/>
    <trip id="veh28" type="veh_passenger" depart="67.72" departLane="best" departSpeed="max" from="-454285423#1" to="-158023913#6"/>
    <trip id="veh29" type="veh_passenger" depart="70.13" departLane="best" from="-743631784" to="-751595930"/>
    <trip id="veh30" type="veh_passenger" depart="72.55" departLane="best" departSpeed="max" from="-437325051" to="72157174#0"/>
    <trip id="veh31" type="veh_passenger" depart="74.97" departLane="best" from="4773465#0" to="120675240#0"/>
    <trip id="veh32" type="veh_passenger" depart="77.39" departLane="best" departSpeed="max" from="54781811#0" to="202156991#0"/>
    <trip id="veh33" type="veh_passenger" depart="79.81" departLane="best" departSpeed="max" from="-51167934#3" to="-751595930"/>
    <trip id="veh34" type="veh_passenger" depart="82.23" departLane="best" departSpeed="max" from="24914992#0" to="-751595930"/>
    <trip id="veh35" type="veh_passenger" depart="84.65" departLane="best" departSpeed="max" from="24914992#0" to="606078071#0"/>
    <trip id="veh36" type="veh_passenger" depart="87.06" departLane="best" departSpeed="max" from="156364553#0" to="-66071373#3"/>
    <trip id="veh37" type="veh_passenger" depart="89.48" departLane="best" departSpeed="max" from="882389497" to="24243107#2"/>
    <trip id="veh38" type="veh_passenger" depart="91.90" departLane="best" departSpeed="max" from="-202156991#2" to="-158023913#6"/>
    <trip id="veh39" type="veh_passenger" depart="94.32" departLane="best" departSpeed="max" from="-24243107#2" to="340498982#3"/>
    <trip id="veh40" type="veh_passenger" depart="96.74" departLane="best" from="43231842#0" to="188386313#0"/>
    <trip id="veh41" type="veh_passenger" depart="99.16" departLane="best" departSpeed="max" from="-194962375#2" to="188386313#0"/>
    <trip id="veh42" type="veh_passenger" depart="101.57" departLane="best" departSpeed="max" from="882389497" to="24913519#0"/>
    <trip id="veh43" type="veh_passenger" depart="103.99" departLane="best" departSpeed="max" from="83517332#0" to="534588621#0"/>
    <trip id="veh44" type="veh_passenger" depart="106.41" departLane="best" departSpeed="max" from="-120675240#3" to="437325047#3"/>
    <trip id="veh45" type="veh_passenger" depart="108.83" departLane="best" departSpeed="max" from="342968607#0" to="25294729#0"/>
    <trip id="veh46" type="veh_passenger" depart="111.25" departLane="best" departSpeed="max" from="-51167934#3" to="340498988#0"/>
    <trip id="veh47" type="veh_passenger" depart="113.67" departLane="best" departSpeed="max" from="-24243107#2" to="188914559"/>
    <trip id="veh48" type="veh_passenger" depart="116.09" departLane="best" from="169195795#0" to="72157174#0"/>
    <trip id="veh49" type="veh_passenger" depart="118.50" departLane="best" from="4773465#0" to="-751595930"/>
    <trip id="veh50" type="veh_passenger" depart="120.92" departLane="best" from="23013165#0" to="-461526153#1"/>
    <trip id="veh51" type="veh_passenger" depart="123.34" departLane="best" departSpeed="max" from="-705182550" to="340498988#0"/>
    <trip id="veh52" type="veh_passenger" depart="125.76" departLane="best" from="28016312#0" to="-4610375"/>
    <trip id="veh53" type="veh_passenger" depart="128.18" departLane="best" departSpeed="max" from="380240681" to="25294729#1"/>
    <trip id="veh54" type="veh_passenger" depart="130.60" departLane="best" departSpeed="max" from="43156728#0" to="251884680"/>
    <trip id="veh55" type="veh_passenger" depart="133.01" departLane="best" from="-111251382#3" to="120675240#0"/>
    <trip id="veh56" type="veh_passenger" depart="135.43" departLane="best" departSpeed="max" from="-120675240#3" to="72157174#0"/>
    <trip id="veh58" type="veh_passenger" depart="140.27" departLane="best" departSpeed="max" from="-705182550" to="-168942727#3"/>
    <trip id="veh59" type="veh_passenger" depart="142.69" departLane="best" from="4773465#0" to="72157174#0"/>
    <trip id="veh60" type="veh_passenger" depart="145.11" departLane="best" departSpeed="max" from="-202156991#2" to="22972195#0"/>
    <trip id="veh61" type="veh_passenger" depart="147.53" departLane="best" departSpeed="max" from="-194962375#2" to="4610472#2"/>
    <trip id="veh62" type="veh_passenger" depart="149.94" departLane="best" departSpeed="max" from="380240681" to="-43156728#4"/>
    <trip id="veh63" type="veh_passenger" depart="152.36" departLane="best" from="190447768#2" to="25294729#1"/>
    <trip id="veh64" type="veh_passenger" depart="154.78" departLane="best" departSpeed="max" from="-51167934#3" to="541295974"/>
    <trip id="veh65" type="veh_passenger" depart="157.20" departLane="best" departSpeed="max" from="158023913#0" to="-66071373#3"/>
    <trip id="veh66" type="veh_passenger" depart="159.62" departLane="best" departSpeed="max" from="243854725#0" to="437325047#3"/>
    <trip id="veh67" type="veh_passenger" depart="162.04" departLane="best" departSpeed="max" from="-437325047#3" to="120675240#0"/>
    <trip id="veh68" type="veh_passenger" depart="164.45" departLane="best" departSpeed="max" from="882389497" to="34848160#0"/>
    <trip id="veh69" type="veh_passenger" depart="166.87" departLane="best" from="15971189" to="24243107#2"/>
    <trip id="veh70" type="veh_passenger" depart="169.29" departLane="best" departSpeed="max" from="-24243107#2" to="-66071373#3"/>
    <trip id="veh71" type="veh_passenger" depart="171.71" departLane="best" departSpeed="max" from="111833185#0" to="327518240"/>
    <trip id="veh72" type="veh_passenger" depart="174.13" departLane="best" departSpeed="max" from="-454285423#1" to="-66071373#3"/>
    <trip id="veh73" type="veh_passenger" depart="176.55" departLane="best" departSpeed="max" from="-194962375#2" to="340498982#8"/>
    <trip id="veh74" type="veh_passenger" depart="178.96" departLane="best" departSpeed="max" from="-454285423#1" to="6228081"/>
    <trip id="veh75" type="veh_passenger" depart="181.38" departLane="best" departSpeed="max" from="4773029#0" to="-23121445#5"/>
    <trip id="veh76" type="veh_passenger" depart="183.80" departLane="best" departSpeed="max" from="-454285423#1" to="38208961"/>
    <trip id="veh77" type="veh_passenger" depart="186.22" departLane="best" departSpeed="max" from="-437325051" to="-437325047#2"/>
    <trip id="veh78" type="veh_passenger" depart="188.64" departLane="best" departSpeed="max" from="68647306#0" to="25302636#0"/>
    <trip id="veh79" type="veh_passenger" depart="191.06" departLane="best" from="169999355#0" to="4611693#2"/>
    <trip id="veh80" type="veh_passenger" depart="193.48" departLane="best" departSpeed="max" from="4610374" to="-4773029#1"/>
    <trip id="veh81" type="veh_passenger" depart="195.89" departLane="best" from="-202817674#5" to="188914559"/>
    <trip id="veh82" type="veh_passenger" depart="198.31" departLane="best" departSpeed="max" from="158023913#0" to="202156991#0"/>
    <trip id="veh83" type="veh_passenger" depart="200.73" departLane="best" departSpeed="max" from="882389497" to="-316746323#2"/>
    <trip id="veh84" type="veh_passenger" depart="203.15" departLane="best" departSpeed="max" from="156364553#0" to="15971189"/>
    <trip id="veh85" type="veh_passenger" depart="205.57" departLane="best" departSpeed="max" from="4773029#0" to="-751595930"/>
    <trip id="veh86" type="veh_passenger" depart="207.99" departLane="best" from="-437325047#2" to="190447768#2"/>
    <trip id="veh87" type="veh_passenger" depart="210.40" departLane="best" departSpeed="max" from="158023913#0" to="-751595930"/>
    <trip id="veh88" type="veh_passenger" depart="212.82" departLane="best" from="-4610600" to="72157174#0"/>
    <trip id="veh89" type="veh_passenger" depart="215.24" departLane="best" from="15971197#0" to="534588621#0"/>
    <trip id="veh90" type="veh_passenger" depart="217.66" departLane="best" from="24913519#0" to="-15977422#1"/>
    <trip id="veh91" type="veh_passenger" depart="220.08" departLane="best" departSpeed="max" from="882389497" to="4773465#0"/>
    <trip id="veh92" type="veh_passenger" depart="222.50" departLane="best" departSpeed="max" from="83517332#0" to="72157174#0"/>
    <trip id="veh93" type="veh_passenger" depart="224.92" departLane="best" from="46140382" to="-4610375"/>
    <trip id="veh94" type="veh_passenger" depart="227.33" departLane="best" from="202156994#0" to="-66071373#3"/>
    <trip id="veh95" type="veh_passenger" depart="229.75" departLane="best" departSpeed="max" from="156364553#0" to="-169999355#2"/>
    <trip id="veh96" type="veh_passenger" depart="232.17" departLane="best" departSpeed="max" from="156364553#0" to="831694400"/>
    <trip id="veh97" type="veh_passenger" depart="234.59" departLane="best" departSpeed="max" from="-51167934#3" to="4611693#2"/>
    <trip id="veh98" type="veh_passenger" depart="237.01" departLane="best" from="169195795#0" to="188386313#0"/>
    <trip id="veh99" type="veh_passenger" depart="239.43" departLane="best" from="831694400" to="882389494"/>
    <trip id="veh100" type="veh_passenger" depart="241.84" departLane="best" departSpeed="max" from="24914992#0" to="437325047#3"/>
    <trip id="veh101" type="veh_passenger" depart="244.26" departLane="best" departSpeed="max" from="-25302636#3" to="-882389497"/>
    <trip id="veh102" type="veh_passenger" depart="246.68" departLane="best" departSpeed="max" from="83517332#0" to="30720544#0"/>
    <trip id="veh103" type="veh_passenger" depart="249.10" departLane="best" departSpeed="max" from="243854725#0" to="437325051"/>
    <trip id="veh104" type="veh_passenger" depart="251.52" departLane="best" departSpeed="max" from="-188914559" to="30721662#0"/>
    <trip id="veh105" type="veh_passenger" depart="253.94" departLane="best" from="23013165#0" to="51167934#0"/>
    <trip id="veh106" type="veh_passenger" depart="256.36" departLane="best" from="-28251222#1" to="743631784"/>
    <trip id="veh107" type="veh_passenger" depart="258.77" departLane="best" from="-195411605#1" to="-4773029#1"/>
    <trip id="veh108" type="veh_passenger" depart="261.19" departLane="best" departSpeed="max" from="24914992#0" to="42103021"/>
    <trip id="veh109" type="veh_passenger" depart="263.61" departLane="best" departSpeed="max" from="-454285423#1" to="-43156728#4"/>
    <trip id="veh110" type="veh_passenger" depart="266.03" departLane="best" from="54048862#0" to="-751595930"/>
    <trip id="veh111" type="veh_passenger" depart="268.45" departLane="best" departSpeed="max" from="24914992#0" to="340498976#4"/>
    <trip id="veh112" type="veh_passenger" depart="270.87" departLane="best" departSpeed="max" from="24243052#0" to="72157174#0"/>
    <trip id="veh113" type="veh_passenger" depart="273.28" departLane="best" departSpeed="max" from="-454285423#1" to="188386313#0"/>
    <trip id="veh114" type="veh_passenger" depart="275.70" departLane="best" from="-750204886" to="4412868"/>
    <trip id="veh115" type="veh_passenger" depart="278.12" departLane="best" departSpeed="max" from="-194962375#2" to="202156991#0"/>
    <trip id="veh116" type="veh_passenger" depart="280.54" departLane="best" departSpeed="max" from="-194962375#2" to="-66071373#3"/>
    <trip id="veh117" type="veh_passenger" depart="282.96" departLane="best" departSpeed="max" from="-51167934#3" to="72157174#0"/>
    <trip id="veh118" type="veh_passenger" depart="285.38" departLane="best" from="490365295#0" to="541763974"/>
    <trip id="veh119" type="veh_passenger" depart="287.80" departLane="best" departSpeed="max" from="156364553#0" to="-4610375"/>
    <trip id="veh120" type="veh_passenger" depart="290.21" departLane="best" departSpeed="max" from="4610375" to="427637455"/>
    <trip id="veh121" type="veh_passenger" depart="292.63" departLane="best" from="28251222#0" to="831694400"/>
    <trip id="veh122" type="veh_passenger" depart="295.05" departLane="best" departSpeed="max" from="4610374" to="-882389497"/>
    <trip id="veh123" type="veh_passenger" depart="297.47" departLane="best" departSpeed="max" from="342968607#0" to="72157174#0"/>
    <trip id="veh124" type="veh_passenger" depart="299.89" departLane="best" departSpeed="max" from="-25294729#1" to="-43156728#4"/>
    <trip id="veh125" type="veh_passenger" depart="302.31" departLane="best" departSpeed="max" from="-24243107#2" to="25294729#1"/>
    <trip id="veh126" type="veh_passenger" depart="304.72" departLane="best" from="-534588621#1" to="330840125#0"/>
    <trip id="veh127" type="veh_passenger" depart="307.14" departLane="best" departSpeed="max" from="374734385#0" to="-562707499"/>
    <trip id="veh128" type="veh_passenger" depart="309.56" departLane="best" from="339201219" to="-751595930"/>
    <trip id="veh129" type="veh_passenger" depart="311.98" departLane="best" from="202157002#0" to="6228081"/>
    <trip id="veh130" type="veh_passenger" depart="314.40" departLane="best" from="4611693#0" to="-24243107#1"/>
    <trip id="veh131" type="veh_passenger" depart="316.82" departLane="best" departSpeed="max" from="158023913#0" to="-751595930"/>
    <trip id="veh132" type="veh_passenger" depart="319.23" departLane="best" from="-11483007#2" to="4611693#2"/>
    <trip id="veh133" type="veh_passenger" depart="321.65" departLane="best" from="340498976#4" to="-751595930"/>
    <trip id="veh134" type="veh_passenger" depart="324.07" departLane="best" departSpeed="max" from="374734385#0" to="25294729#1"/>
    <trip id="veh135" type="veh_passenger" depart="326.49" departLane="best" departSpeed="max" from="-194962375#2" to="55741054"/>
    <trip id="veh136" type="veh_passenger" depart="328.91" departLane="best" departSpeed="max" from="54781811#0" to="25294729#1"/>
    <trip id="veh137" type="veh_passenger" depart="331.33" departLane="best" departSpeed="max" from="4610375" to="30721660#4"/>
    <trip id="veh138" type="veh_passenger" depart="333.75" departLane="best" departSpeed="max" from="-25302636#3" to="-43156728#4"/>
    <trip id="veh139" type="veh_passenger" depart="336.16" departLane="best" departSpeed="max" from="-705182550" to="606078071#0"/>
    <trip id="veh140" type="veh_passenger" depart="338.58" departLane="best" from="4412868" to="534588621#0"/>
    <trip id="veh141" type="veh_passenger" depart="341.00" departLane="best" from="541763974" to="-66071373#3"/>
    <trip id="veh142" type="veh_passenger" depart="343.42" departLane="best" from="-4610600" to="-330840125#1"/>
    <trip id="veh143" type="veh_passenger" depart="345.84" departLane="best" departSpeed="max" from="43156728#0" to="55741054"/>
    <trip id="veh144" type="veh_passenger" depart="348.26" departLane="best" departSpeed="max" from="156364553#0" to="340498982#0"/>
    <trip id="veh145" type="veh_passenger" depart="350.67" departLane="best" departSpeed="max" from="-25302636#3" to="72157174#0"/>
    <trip id="veh146" type="veh_passenger" depart="353.09" departLane="best" departSpeed="max" from="4773029#0" to="751595929#0"/>
    <trip id="veh147" type="veh_passenger" depart="355.51" departLane="best" departSpeed="max" from="4610374" to="55741054"/>
    <trip id="veh148" type="veh_passenger" depart="357.93" departLane="best" departSpeed="max" from="111833185#0" to="72157174#0"/>
    <trip id="veh149" type="veh_passenger" depart="360.35" departLane="best" departSpeed="max" from="4610374" to="54048862#0"/>
    <trip id="veh150" type="veh_passenger" depart="362.77" departLane="best" departSpeed="max" from="4610374" to="-751595930"/>
    <trip id="veh151" type="veh_passenger" depart="365.19" departLane="best" departSpeed="max" from="43156728#0" to="-35578576#2"/>
    <trip id="veh152" type="veh_passenger" depart="367.60" departLane="best" departSpeed="max" from="4773029#0" to="51167934#0"/>
    <trip id="veh154" type="veh_passenger" depart="372.44" departLane="best" from="4402228" to="-743631784"/>
    <trip id="veh155" type="veh_passenger" depart="374.86" departLane="best" from="-137630045" to="-4773029#1"/>
    <trip id="veh156" type="veh_passenger" depart="377.28" departLane="best" departSpeed="max" from="111833185#0" to="54048862#0"/>
    <trip id="veh157" type="veh_passenger" depart="379.70" departLane="best" departSpeed="max" from="83517332#0" to="-751595930"/>
    <trip id="veh158" type="veh_passenger" depart="382.11" departLane="best" from="340498982#0" to="188386313#0"/>
    <trip id="veh159" type="veh_passenger" depart="384.53" departLane="best" from="882389494" to="25294729#0"/>
    <trip id="veh160" type="veh_passenger" depart="386.95" departLane="best" departSpeed="max" from="68647306#0" to="-43156728#4"/>
    <trip id="veh161" type="veh_passenger" depart="389.37" departLane="best" departSpeed="max" from="83517332#0" to="-461526153#1"/>
    <trip id="veh162" type="veh_passenger" depart="391.79" departLane="best" departSpeed="max" from="83517332#0" to="-751595930"/>
    <trip id="veh163" type="veh_passenger" depart="394.21" departLane="best" departSpeed="max" from="-24243107#2" to="188914559"/>
    <trip id="veh164" type="veh_passenger" depart="396.63" departLane="best" departSpeed="max" from="374734385#0" to="120675240#0"/>
    <trip id="veh165" type="veh_passenger" depart="399.04" departLane="best" from="25294728" to="24243107#2"/>
    <trip id="veh167" type="veh_passenger" depart="403.88" departLane="best" from="-474362271" to="427637455"/>
    <trip id="veh168" type="veh_passenger" depart="406.30" departLane="best" from="-111251382#3" to="72157174#0"/>
    <trip id="veh169" type="veh_passenger" depart="408.72" departLane="best" departSpeed="max" from="243854725#0" to="437325047#3"/>
    <trip id="veh170" type="veh_passenger" depart="411.14" departLane="best" from="153698394#2" to="-222328410"/>
    <trip id="veh171" type="veh_passenger" depart="413.55" departLane="best" departSpeed="max" from="342968607#0" to="153698394#0"/>
    <trip id="veh172" type="veh_passenger" depart="415.97" departLane="best" departSpeed="max" from="-705182550" to="51167934#0"/>
    <trip id="veh173" type="veh_passenger" depart="418.39" departLane="best" departSpeed="max" from="374734385#0" to="-882389497"/>
    <trip id="veh174" type="veh_passenger" depart="420.81" departLane="best" departSpeed="max" from="-705182550" to="188386313#0"/>
    <trip id="veh175" type="veh_passenger" depart="423.23" departLane="best" departSpeed="max" from="156364553#0" to="-882389497"/>
    <trip id="veh176" type="veh_passenger" depart="425.65" departLane="best" departSpeed="max" from="-25294729#1" to="188386313#0"/>
    <trip id="veh177" type="veh_passenger" depart="428.06" departLane="best" departSpeed="max" from="68647306#0" to="42103021"/>
    <trip id="veh178" type="veh_passenger" depart="430.48" departLane="best" departSpeed="max" from="54781811#0" to="339201219"/>
    <trip id="veh179" type="veh_passenger" depart="432.90" departLane="best" departSpeed="max" from="-705182550" to="25294729#1"/>
    <trip id="veh180" type="veh_passenger" depart="435.32" departLane="best" from="-111251382#3" to="-882389497"/>
    <trip id="veh181" type="veh_passenger" depart="437.74" departLane="best" departSpeed="max" from="158023913#0" to="30720544#0"/>
    <trip id="veh182" type="veh_passenger" depart="440.16" departLane="best" from="340498988#0" to="202156991#0"/>
    <trip id="veh183" type="veh_passenger" depart="442.58" departLane="best" from="15971197#0" to="-66071373#3"/>
    <trip id="veh184" type="veh_passenger" depart="444.99" departLane="best" from="183415643" to="61583424#0"/>
    <trip id="veh185" type="veh_passenger" depart="447.41" departLane="best" from="4412868" to="-4610472#1"/>
    <trip id="veh186" type="veh_passenger" depart="449.83" departLane="best" departSpeed="max" from="-202156991#2" to="24243107#2"/>
    <trip id="veh187" type="veh_passenger" depart="452.25" departLane="best" departSpeed="max" from="4610375" to="4412868"/>
    <trip id="veh188" type="veh_passenger" depart="454.67" departLane="best" departSpeed="max" from="342968607#0" to="-66071373#3"/>
    <trip id="veh189" type="veh_passenger" depart="457.09" departLane="best" departSpeed="max" from="-437325047#3" to="-137630045"/>
    <trip id="veh190" type="veh_passenger" depart="459.50" departLane="best" from="-4610472#5" to="202156994#0"/>
    <trip id="veh191" type="veh_passenger" depart="461.92" departLane="best" from="461526152#0" to="-23809670#3"/>
    <trip id="veh192" type="veh_passenger" depart="464.34" departLane="best" from="156364556#0" to="340498982#3"/>
    <trip id="veh193" type="veh_passenger" depart="466.76" departLane="best" departSpeed="max" from="-437325047#3" to="427637455"/>
    <trip id="veh194" type="veh_passenger" depart="469.18" departLane="best" from="22972195#0" to="-751595930"/>
    <trip id="veh195" type="veh_passenger" depart="471.60" departLane="best" departSpeed="max" from="380240681" to="4611693#2"/>
    <trip id="veh196" type="veh_passenger" depart="474.02" departLane="best" departSpeed="max" from="-24243107#2" to="188386313#0"/>
    <trip id="veh197" type="veh_passenger" depart="476.43" departLane="best" departSpeed="max" from="-34848160#3" to="72157174#0"/>
    <trip id="veh198" type="veh_passenger" depart="478.85" departLane="best" departSpeed="max" from="24243052#0" to="-15977422#1"/>
    <trip id="veh199" type="veh_passenger" depart="481.27" departLane="best" from="-4610600" to="51167934#0"/>
    <trip id="veh200" type="veh_passenger" depart="483.69" departLane="best" from="169195795#0" to="46140376#0"/>
    <trip id="veh201" type="veh_passenger" depart="486.11" departLane="best" departSpeed="max" from="342968607#0" to="831694400"/>
    <trip id="veh202" type="veh_passenger" depart="488.53" departLane="best" departSpeed="max" from="374734385#0" to="24243092#0"/>
    <trip id="veh203" type="veh_passenger" depart="490.94" departLane="best" departSpeed="max" from="4610375" to="25294729#1"/>
    <trip id="veh204" type="veh_passenger" depart="493.36" departLane="best" from="190447768#2" to="-751595930"/>
    <trip id="veh205" type="veh_passenger" depart="495.78" departLane="best" from="-4610524" to="340498988#0"/>
    <trip id="veh206" type="veh_passenger" depart="498.20" departLane="best" departSpeed="max" from="380240681" to="24243107#2"/>
    <trip id="veh207" type="veh_passenger" depart="500.62" departLane="best" from="339201177#0" to="-751595930"/>
    <trip id="veh208" type="veh_passenger" depart="503.04" departLane="best" from="-195397561#6" to="-882389497"/>
    <trip id="veh209" type="veh_passenger" depart="505.46" departLane="best" from="-534588621#1" to="120675240#0"/>
    <trip id="veh210" type="veh_passenger" depart="507.87" departLane="best" departSpeed="max" from="243854725#0" to="-4610374"/>
    <trip id="veh211" type="veh_passenger" depart="510.29" departLane="best" departSpeed="max" from="-454285423#1" to="427637455"/>
    <trip id="veh212" type="veh_passenger" depart="512.71" departLane="best" departSpeed="max" from="342968607#0" to="-195397561#6"/>
    <trip id="veh213" type="veh_passenger" depart="515.13" departLane="best" departSpeed="max" from="156364553#0" to="25294729#1"/>
    <trip id="veh214" type="veh_passenger" depart="517.55" departLane="best" from="156364556#0" to="-6228081"/>
    <trip id="veh215" type="veh_passenger" depart="519.97" departLane="best" from="156364570#1" to="6228081"/>
    <trip id="veh216" type="veh_passenger" depart="522.38" departLane="best" departSpeed="max" from="24914992#0" to="427637455"/>
    <trip id="veh218" type="veh_passenger" depart="527.22" departLane="best" departSpeed="max" from="156364553#0" to="-111833185#1"/>
    <trip id="veh220" type="veh_passenger" depart="532.06" departLane="best" from="461526152#0" to="72157174#0"/>
    <trip id="veh221" type="veh_passenger" depart="534.48" departLane="best" from="156364570#1" to="437325051"/>
    <trip id="veh222" type="veh_passenger" depart="536.89" departLane="best" departSpeed="max" from="243854725#0" to="327518240"/>
    <trip id="veh223" type="veh_passenger" depart="539.31" departLane="best" departSpeed="max" from="-437325051" to="-66071373#3"/>
    <trip id="veh224" type="veh_passenger" depart="541.73" departLane="best" departSpeed="max" from="158023913#0" to="-156364570#0"/>
    <trip id="veh225" type="veh_passenger" depart="544.15" departLane="best" departSpeed="max" from="111833185#0" to="42103021"/>
    <trip id="veh226" type="veh_passenger" depart="546.57" departLane="best" departSpeed="max" from="156364553#0" to="-4610375"/>
    <trip id="veh227" type="veh_passenger" depart="548.99" departLane="best" from="169195795#8" to="-43156728#4"/>
    <trip id="veh228" type="veh_passenger" depart="551.41" departLane="best" from="316746323#0" to="-153698390#1"/>
    <trip id="veh229" type="veh_passenger" depart="553.82" departLane="best" departSpeed="max" from="156364553#0" to="25302636#0"/>
    <trip id="veh230" type="veh_passenger" depart="556.24" departLane="best" from="-156364570#0" to="34848160#0"/>
    <trip id="veh231" type="veh_passenger" depart="558.66" departLane="best" departSpeed="max" from="-25294729#1" to="202156991#0"/>
    <trip id="veh232" type="veh_passenger" depart="561.08" departLane="best" departSpeed="max" from="-188914559" to="188386313#0"/>
    <trip id="veh233" type="veh_passenger" depart="563.50" departLane="best" departSpeed="max" from="-437325051" to="136571494#0"/>
    <trip id="veh234" type="veh_passenger" depart="565.92" departLane="best" departSpeed="max" from="380240681" to="188386313#0"/>