<?xml version="1.0" encoding="UTF-8"?>

<!-- generated on Sun May  2 22:09:05 2021 by Eclipse SUMO netconvert Version 1.9.0
<configuration xmlns:xsi="http://www.w3.org/2001/XMLSchema-instance" xsi:noNamespaceSchemaLocation="http://sumo.dlr.de/xsd/netconvertConfiguration.xsd">

    <input>
        <type-files value="C:\Program%20Files%20(x86)\Eclipse\Sumo\data\typemap\osmNetconvert.typ.xml"/>
        <osm-files value="osm_bbox.osm.xml"/>
    </input>

    <output>
        <output-file value="osm.net.xml"/>
        <output.street-names value="true"/>
        <output.original-names value="true"/>
    </output>

    <projection>
        <proj.utm value="true"/>
    </projection>

    <processing>
        <geometry.remove value="true"/>
        <roundabouts.guess value="true"/>
    </processing>

    <tls_building>
        <tls.discard-simple value="true"/>
        <tls.join value="true"/>
        <tls.guess-signals value="true"/>
        <tls.default-type value="actuated"/>
    </tls_building>

    <ramp_guessing>
        <ramps.guess value="true"/>
    </ramp_guessing>

    <edge_removal>
        <keep-edges.by-vclass value="passenger"/>
    </edge_removal>

    <junctions>
        <junctions.join value="true"/>
        <junctions.corner-detail value="5"/>
    </junctions>

    <report>
        <verbose value="true"/>
        <aggregate-warnings value="5"/>
    </report>

</configuration>
-->

<net version="1.9" junctionCornerDetail="5" limitTurnSpeed="5.50" xmlns:xsi="http://www.w3.org/2001/XMLSchema-instance" xsi:noNamespaceSchemaLocation="http://sumo.dlr.de/xsd/net_file.xsd">

    <location netOffset="-390441.18,-5819523.68" convBoundary="0.00,0.00,1606.15,1167.20" origBoundary="13.372213,52.514880,13.409514,52.529230" projParameter="+proj=utm +zone=33 +ellps=WGS84 +datum=WGS84 +units=m +no_defs"/>

    <type id="highway.bridleway" priority="1" numLanes="1" speed="2.78" allow="pedestrian" oneway="1" width="2.00"/>
    <type id="highway.bus_guideway" priority="1" numLanes="1" speed="27.78" allow="bus" oneway="1"/>
    <type id="highway.cycleway" priority="1" numLanes="1" speed="8.33" allow="bicycle" oneway="0" width="1.00"/>
    <type id="highway.footway" priority="1" numLanes="1" speed="2.78" allow="pedestrian" oneway="1" width="2.00"/>
    <type id="highway.ford" priority="1" numLanes="1" speed="2.78" allow="army" oneway="0"/>
    <type id="highway.living_street" priority="2" numLanes="1" speed="2.78" disallow="tram rail_urban rail rail_electric rail_fast ship" oneway="0"/>
    <type id="highway.motorway" priority="14" numLanes="2" speed="39.44" allow="private emergency authority army vip passenger hov taxi bus coach delivery truck trailer motorcycle evehicle custom1 custom2" oneway="1"/>
    <type id="highway.motorway_link" priority="9" numLanes="1" speed="22.22" allow="private emergency authority army vip passenger hov taxi bus coach delivery truck trailer motorcycle evehicle custom1 custom2" oneway="1"/>
    <type id="highway.path" priority="1" numLanes="1" speed="2.78" allow="pedestrian bicycle" oneway="0" width="2.00"/>
    <type id="highway.pedestrian" priority="1" numLanes="1" speed="2.78" allow="pedestrian" oneway="1" width="2.00"/>
    <type id="highway.primary" priority="12" numLanes="2" speed="27.78" disallow="tram rail_urban rail rail_electric rail_fast ship" oneway="0"/>
    <type id="highway.primary_link" priority="7" numLanes="1" speed="22.22" disallow="tram rail_urban rail rail_electric rail_fast ship" oneway="0"/>
    <type id="highway.raceway" priority="15" numLanes="2" speed="83.33" allow="vip" oneway="0"/>
    <type id="highway.residential" priority="3" numLanes="1" speed="13.89" disallow="tram rail_urban rail rail_electric rail_fast ship" oneway="0"/>
    <type id="highway.secondary" priority="11" numLanes="1" speed="27.78" disallow="tram rail_urban rail rail_electric rail_fast ship" oneway="0"/>
    <type id="highway.secondary_link" priority="6" numLanes="1" speed="22.22" disallow="tram rail_urban rail rail_electric rail_fast ship" oneway="0"/>
    <type id="highway.service" priority="1" numLanes="1" speed="5.56" allow="pedestrian delivery bicycle" oneway="0"/>
    <type id="highway.stairs" priority="1" numLanes="1" speed="1.39" allow="pedestrian" oneway="1" width="2.00"/>
    <type id="highway.step" priority="1" numLanes="1" speed="1.39" allow="pedestrian" oneway="1" width="2.00"/>
    <type id="highway.steps" priority="1" numLanes="1" speed="1.39" allow="pedestrian" oneway="1" width="2.00"/>
    <type id="highway.tertiary" priority="10" numLanes="1" speed="22.22" disallow="tram rail_urban rail rail_electric rail_fast ship" oneway="0"/>
    <type id="highway.tertiary_link" priority="5" numLanes="1" speed="22.22" disallow="tram rail_urban rail rail_electric rail_fast ship" oneway="0"/>
    <type id="highway.track" priority="1" numLanes="1" speed="5.56" allow="pedestrian motorcycle moped bicycle" oneway="0"/>
    <type id="highway.trunk" priority="13" numLanes="2" speed="27.78" disallow="pedestrian bicycle tram rail_urban rail rail_electric rail_fast ship" oneway="0"/>
    <type id="highway.trunk_link" priority="8" numLanes="1" speed="22.22" disallow="pedestrian bicycle tram rail_urban rail rail_electric rail_fast ship" oneway="0"/>
    <type id="highway.unclassified" priority="4" numLanes="1" speed="13.89" disallow="tram rail_urban rail rail_electric rail_fast ship" oneway="0"/>
    <type id="highway.unsurfaced" priority="1" numLanes="1" speed="8.33" disallow="tram rail_urban rail rail_electric rail_fast ship" oneway="0"/>
    <type id="railway.highspeed" priority="21" numLanes="1" speed="69.44" allow="rail_fast" oneway="1"/>
    <type id="railway.light_rail" priority="19" numLanes="1" speed="27.78" allow="rail_urban" oneway="1"/>
    <type id="railway.preserved" priority="16" numLanes="1" speed="27.78" allow="rail" oneway="1"/>
    <type id="railway.rail" priority="20" numLanes="1" speed="44.44" allow="rail" oneway="1"/>
    <type id="railway.subway" priority="18" numLanes="1" speed="27.78" allow="rail_urban" oneway="1"/>
    <type id="railway.tram" priority="17" numLanes="1" speed="13.89" allow="tram" oneway="1"/>

    <edge id=":1075544310_0" function="internal">
        <lane id=":1075544310_0_0" index="0" disallow="tram rail_urban rail rail_electric rail_fast ship" speed="3.65" length="4.67" shape="613.49,860.77 613.87,859.37 614.50,858.74 615.38,858.86 616.52,859.74"/>
    </edge>
    <edge id=":1208647794_0" function="internal">
        <lane id=":1208647794_0_0" index="0" disallow="tram rail_urban rail rail_electric rail_fast ship" speed="8.33" length="9.33" shape="744.45,531.43 742.12,532.14 740.20,533.32 738.68,534.97 737.56,537.09"/>
    </edge>
    <edge id=":1208647794_1" function="internal">
        <lane id=":1208647794_1_0" index="0" disallow="tram rail_urban rail rail_electric rail_fast ship" speed="3.65" length="4.67" shape="744.45,531.43 743.12,530.87 742.58,530.15 742.83,529.29 743.86,528.29"/>
    </edge>
    <edge id=":1208647794_2" function="internal">
        <lane id=":1208647794_2_0" index="0" disallow="tram rail_urban rail rail_electric rail_fast ship" speed="6.80" length="8.50" shape="737.23,524.29 738.37,526.37 739.85,527.73 741.68,528.37 743.86,528.29"/>
    </edge>
    <edge id=":1208647794_3" function="internal">
        <lane id=":1208647794_3_0" index="0" disallow="tram rail_urban rail rail_electric rail_fast ship" speed="8.33" length="13.16" shape="737.23,524.29 738.32,527.59 738.77,530.69 738.53,533.78 737.56,537.09"/>
    </edge>
    <edge id=":1210473765_0" function="internal">
        <lane id=":1210473765_0_0" index="0" disallow="tram rail_urban rail rail_electric rail_fast ship" speed="3.65" length="4.67" shape="507.83,958.38 509.13,959.01 509.64,959.75 509.35,960.60 508.27,961.55"/>
    </edge>
    <edge id=":1387903273_0" function="internal">
        <lane id=":1387903273_0_0" index="0" disallow="tram rail_urban rail rail_electric rail_fast ship" speed="8.33" length="9.81" shape="129.25,551.68 132.11,552.22 134.08,552.65 136.05,552.88 138.94,552.83"/>
    </edge>
    <edge id=":1387903273_1" function="internal">
        <lane id=":1387903273_1_0" index="0" disallow="tram rail_urban rail rail_electric rail_fast ship" speed="4.98" length="8.94" shape="129.25,551.68 132.26,552.39 133.32,553.26 132.42,554.29 129.56,555.48"/>
    </edge>
    <edge id=":1447185655_0" function="internal">
        <lane id=":1447185655_0_0" index="0" disallow="tram rail_urban rail rail_electric rail_fast ship" speed="6.02" length="9.08" shape="147.73,824.67 145.61,823.19 143.68,822.91 141.95,823.81 140.42,825.90"/>
    </edge>
    <edge id=":1447185655_1" function="internal">
        <lane id=":1447185655_1_0" index="0" disallow="tram rail_urban rail rail_electric rail_fast ship" speed="11.11" length="14.62" shape="147.73,824.67 137.01,814.73"/>
    </edge>
    <edge id=":1447185655_2" function="internal">
        <lane id=":1447185655_2_0" index="0" disallow="tram rail_urban rail rail_electric rail_fast ship" speed="3.65" length="2.34" shape="147.73,824.67 147.40,823.27 147.65,822.41"/>
    </edge>
    <edge id=":1447185655_9" function="internal">
        <lane id=":1447185655_9_0" index="0" disallow="tram rail_urban rail rail_electric rail_fast ship" speed="3.65" length="2.34" shape="147.65,822.41 148.49,822.09 149.91,822.32"/>
    </edge>
    <edge id=":1447185655_3" function="internal">
        <lane id=":1447185655_3_0" index="0" disallow="tram rail_urban rail rail_electric rail_fast ship" speed="11.11" length="14.63" shape="139.18,812.38 149.91,822.32"/>
    </edge>
    <edge id=":1447185655_4" function="internal">
        <lane id=":1447185655_4_0" index="0" disallow="tram rail_urban rail rail_electric rail_fast ship" speed="8.33" length="5.59" shape="139.18,812.38 141.38,815.19 141.95,817.13"/>
    </edge>
    <edge id=":1447185655_5" function="internal">
        <lane id=":1447185655_5_0" index="0" disallow="tram rail_urban rail rail_electric rail_fast ship" speed="3.65" length="2.34" shape="139.18,812.38 139.52,813.78 139.27,814.64"/>
    </edge>
    <edge id=":1447185655_10" function="internal">
        <lane id=":1447185655_10_0" index="0" disallow="tram rail_urban rail rail_electric rail_fast ship" speed="8.33" length="9.14" shape="141.95,817.13 142.32,818.37 142.00,821.94 140.42,825.90"/>
    </edge>
    <edge id=":1447185655_11" function="internal">
        <lane id=":1447185655_11_0" index="0" disallow="tram rail_urban rail rail_electric rail_fast ship" speed="3.65" length="2.34" shape="139.27,814.64 138.43,814.96 137.01,814.73"/>
    </edge>
    <edge id=":1447185655_6" function="internal">
        <lane id=":1447185655_6_0" index="0" disallow="tram rail_urban rail rail_electric rail_fast ship" speed="7.69" length="10.49" shape="137.60,824.39 138.78,821.50 139.08,818.92 138.49,816.67 137.01,814.73"/>
    </edge>
    <edge id=":1447185655_7" function="internal">
        <lane id=":1447185655_7_0" index="0" disallow="tram rail_urban rail rail_electric rail_fast ship" speed="7.62" length="15.28" shape="137.60,824.39 140.17,820.87 143.08,819.36 146.33,819.84 149.91,822.32"/>
    </edge>
    <edge id=":1447185655_8" function="internal">
        <lane id=":1447185655_8_0" index="0" disallow="tram rail_urban rail rail_electric rail_fast ship" speed="3.65" length="4.67" shape="137.60,824.39 138.87,823.71 139.76,823.73 140.28,824.46 140.42,825.90"/>
    </edge>
    <edge id=":1447185681_0" function="internal">
        <lane id=":1447185681_0_0" index="0" disallow="tram rail_urban rail rail_electric rail_fast ship" speed="3.65" length="4.67" shape="18.87,971.30 17.89,970.24 17.69,969.37 18.27,968.68 19.62,968.19"/>
    </edge>
    <edge id=":160493817_0" function="internal">
        <lane id=":160493817_0_0" index="0" disallow="tram rail_urban rail rail_electric rail_fast ship" speed="2.78" length="1.18" shape="813.01,483.68 814.02,484.28"/>
    </edge>
    <edge id=":160493817_1" function="internal">
        <lane id=":160493817_1_0" index="0" disallow="tram rail_urban rail rail_electric rail_fast ship" speed="2.78" length="1.22" shape="815.64,481.51 814.59,480.90"/>
    </edge>
    <edge id=":160493831_0" function="internal">
        <lane id=":160493831_0_0" index="0" disallow="tram rail_urban rail rail_electric rail_fast ship" speed="13.89" length="0.33" shape="919.97,290.65 920.11,290.66 920.21,290.67 920.31,290.69 920.46,290.71"/>
        <lane id=":160493831_0_1" index="1" disallow="tram rail_urban rail rail_electric rail_fast ship" speed="13.89" length="0.33" shape="919.71,293.84 919.76,293.84 919.79,293.85 919.82,293.85 919.87,293.86"/>
    </edge>
    <edge id=":160493838_0" function="internal">
        <lane id=":160493838_0_0" index="0" disallow="tram rail_urban rail rail_electric rail_fast ship" speed="13.89" length="0.30" shape="869.63,286.54 869.94,286.56"/>
        <lane id=":160493838_0_1" index="1" disallow="tram rail_urban rail rail_electric rail_fast ship" speed="13.89" length="0.30" shape="869.38,289.73 869.68,289.75"/>
    </edge>
    <edge id=":160493846_0" function="internal">
        <lane id=":160493846_0_0" index="0" disallow="tram rail_urban rail rail_electric rail_fast ship" speed="13.89" length="0.24" shape="868.98,298.64 868.74,298.62"/>
    </edge>
    <edge id=":160493853_0" function="internal">
        <lane id=":160493853_0_0" index="0" disallow="tram rail_urban rail rail_electric rail_fast ship" speed="13.89" length="7.90" shape="923.15,301.40 920.84,301.28 919.26,301.62 917.66,302.01 915.34,302.09"/>
    </edge>
    <edge id=":1668717174_0" function="internal">
        <lane id=":1668717174_0_0" index="0" disallow="tram rail_urban rail rail_electric rail_fast ship" speed="8.33" length="3.34" shape="856.05,977.03 855.08,977.24 854.42,977.42 853.79,977.66 852.88,978.07"/>
    </edge>
    <edge id=":1668717174_1" function="internal">
        <lane id=":1668717174_1_0" index="0" disallow="tram rail_urban rail rail_electric rail_fast ship" speed="5.20" length="10.15" shape="856.05,977.03 852.66,977.49 851.35,977.01 852.13,975.59 854.99,973.23"/>
    </edge>
    <edge id=":1668717174_2" function="internal">
        <lane id=":1668717174_2_0" index="0" disallow="tram rail_urban rail rail_electric rail_fast ship" speed="8.33" length="3.95" shape="851.56,975.15 852.63,974.67 853.35,974.32 854.04,973.90 854.99,973.23"/>
    </edge>
    <edge id=":1668717174_3" function="internal">
        <lane id=":1668717174_3_0" index="0" disallow="tram rail_urban rail rail_electric rail_fast ship" speed="3.65" length="4.67" shape="851.56,975.15 852.98,975.38 853.68,975.95 853.64,976.84 852.88,978.07"/>
    </edge>
    <edge id=":1769589022_0" function="internal">
        <lane id=":1769589022_0_0" index="0" disallow="tram rail_urban rail rail_electric rail_fast ship" speed="13.89" length="6.80" shape="191.44,776.83 191.74,778.84 192.72,780.10 193.72,781.37 194.05,783.38"/>
        <lane id=":1769589022_0_1" index="1" disallow="tram rail_urban rail rail_electric rail_fast ship" speed="13.89" length="6.80" shape="191.44,776.83 190.87,783.11"/>
    </edge>
    <edge id=":1769589022_2" function="internal">
        <lane id=":1769589022_2_0" index="0" disallow="tram rail_urban rail rail_electric rail_fast ship" speed="13.89" length="7.38" shape="184.49,782.58 185.15,780.62 186.35,779.53 187.55,778.45 188.26,776.50"/>
    </edge>
    <edge id=":1769589034_0" function="internal">
        <lane id=":1769589034_0_0" index="0" disallow="tram rail_urban rail rail_electric rail_fast ship" speed="13.89" length="7.98" shape="189.38,838.95 188.70,841.10 187.49,842.35 186.28,843.59 185.59,845.74"/>
    </edge>
    <edge id=":1769589034_1" function="internal">
        <lane id=":1769589034_1_0" index="0" disallow="tram rail_urban rail rail_electric rail_fast ship" speed="13.89" length="7.51" shape="182.40,845.46 182.09,843.23 181.11,841.80 180.13,840.38 179.82,838.15"/>
        <lane id=":1769589034_1_1" index="1" disallow="tram rail_urban rail rail_electric rail_fast ship" speed="13.89" length="7.51" shape="182.40,845.46 183.00,838.42"/>
    </edge>
    <edge id=":1769589042_0" function="internal">
        <lane id=":1769589042_0_0" index="0" disallow="tram rail_urban rail rail_electric rail_fast ship" speed="5.39" length="8.17" shape="197.48,775.46 195.04,774.07 193.23,773.80 192.03,774.65 191.46,776.63"/>
    </edge>
    <edge id=":1769589042_1" function="internal">
        <lane id=":1769589042_1_0" index="0" disallow="tram rail_urban rail rail_electric rail_fast ship" speed="8.33" length="20.08" shape="197.48,775.46 193.84,772.74 189.53,769.33 185.28,765.84 181.85,762.87"/>
    </edge>
    <edge id=":1769589042_2" function="internal">
        <lane id=":1769589042_2_0" index="0" disallow="tram rail_urban rail rail_electric rail_fast ship" speed="11.11" length="6.62" shape="197.48,775.46 194.45,772.27 193.37,770.33"/>
    </edge>
    <edge id=":1769589042_3" function="internal">
        <lane id=":1769589042_3_0" index="0" disallow="tram rail_urban rail rail_electric rail_fast ship" speed="3.65" length="2.34" shape="197.48,775.46 196.97,774.11 197.11,773.23"/>
    </edge>
    <edge id=":1769589042_15" function="internal">
        <lane id=":1769589042_15_0" index="0" disallow="tram rail_urban rail rail_electric rail_fast ship" speed="11.11" length="12.86" shape="193.37,770.33 191.95,767.78 190.33,762.79 189.95,758.12"/>
    </edge>
    <edge id=":1769589042_16" function="internal">
        <lane id=":1769589042_16_0" index="0" disallow="tram rail_urban rail rail_electric rail_fast ship" speed="3.65" length="2.34" shape="197.11,773.23 197.90,772.81 199.34,772.86"/>
    </edge>
    <edge id=":1769589042_4" function="internal">
        <lane id=":1769589042_4_0" index="0" disallow="tram rail_urban rail rail_electric rail_fast ship" speed="11.03" length="16.51" shape="193.14,758.38 193.23,762.85 194.29,766.75 196.33,770.09 199.34,772.86"/>
    </edge>
    <edge id=":1769589042_5" function="internal">
        <lane id=":1769589042_5_0" index="0" disallow="tram rail_urban rail rail_electric rail_fast ship" speed="13.89" length="18.32" shape="193.14,758.38 191.46,776.63"/>
    </edge>
    <edge id=":1769589042_6" function="internal">
        <lane id=":1769589042_6_0" index="0" disallow="tram rail_urban rail rail_electric rail_fast ship" speed="7.38" length="7.13" shape="193.14,758.38 192.01,763.77 190.93,764.98"/>
    </edge>
    <edge id=":1769589042_7" function="internal">
        <lane id=":1769589042_7_0" index="0" disallow="tram rail_urban rail rail_electric rail_fast ship" speed="3.65" length="2.34" shape="193.14,758.38 192.25,759.51 191.42,759.84"/>
    </edge>
    <edge id=":1769589042_17" function="internal">
        <lane id=":1769589042_17_0" index="0" disallow="tram rail_urban rail rail_electric rail_fast ship" speed="7.38" length="10.68" shape="190.93,764.98 189.75,766.31 186.36,766.01 181.85,762.87"/>
    </edge>
    <edge id=":1769589042_18" function="internal">
        <lane id=":1769589042_18_0" index="0" disallow="tram rail_urban rail rail_electric rail_fast ship" speed="3.65" length="2.34" shape="191.42,759.84 190.65,759.38 189.95,758.12"/>
    </edge>
    <edge id=":1769589042_8" function="internal">
        <lane id=":1769589042_8_0" index="0" disallow="tram rail_urban rail rail_electric rail_fast ship" speed="5.55" length="9.41" shape="183.98,760.48 186.37,762.15 188.16,762.31 189.36,760.96 189.95,758.12"/>
    </edge>
    <edge id=":1769589042_9" function="internal">
        <lane id=":1769589042_9_0" index="0" disallow="tram rail_urban rail rail_electric rail_fast ship" speed="8.33" length="19.73" shape="183.98,760.48 187.38,763.42 191.53,766.84 195.75,770.17 199.34,772.86"/>
    </edge>
    <edge id=":1769589042_10" function="internal">
        <lane id=":1769589042_10_0" index="0" disallow="tram rail_urban rail rail_electric rail_fast ship" speed="11.11" length="7.14" shape="183.98,760.48 186.98,763.99 188.23,766.19"/>
    </edge>
    <edge id=":1769589042_11" function="internal">
        <lane id=":1769589042_11_0" index="0" disallow="tram rail_urban rail rail_electric rail_fast ship" speed="3.65" length="2.34" shape="183.98,760.48 184.34,761.88 184.10,762.74"/>
    </edge>
    <edge id=":1769589042_19" function="internal">
        <lane id=":1769589042_19_0" index="0" disallow="tram rail_urban rail rail_electric rail_fast ship" speed="11.11" length="11.07" shape="188.23,766.19 189.46,768.35 191.07,772.82 191.46,776.63"/>
    </edge>
    <edge id=":1769589042_20" function="internal">
        <lane id=":1769589042_20_0" index="0" disallow="tram rail_urban rail rail_electric rail_fast ship" speed="3.65" length="2.34" shape="184.10,762.74 183.27,763.07 181.85,762.87"/>
    </edge>
    <edge id=":1769589042_12" function="internal">
        <lane id=":1769589042_12_0" index="0" disallow="tram rail_urban rail rail_electric rail_fast ship" speed="11.11" length="15.45" shape="188.28,776.30 188.15,772.83 187.03,769.44 184.93,766.12 181.85,762.87"/>
    </edge>
    <edge id=":1769589042_13" function="internal">
        <lane id=":1769589042_13_0" index="0" disallow="tram rail_urban rail rail_electric rail_fast ship" speed="13.89" length="18.26" shape="188.28,776.30 189.95,758.12"/>
    </edge>
    <edge id=":1769589042_14" function="internal">
        <lane id=":1769589042_14_0" index="0" disallow="tram rail_urban rail rail_electric rail_fast ship" speed="3.65" length="2.34" shape="188.28,776.30 189.20,775.19 190.03,774.87"/>
    </edge>
    <edge id=":1769589042_21" function="internal">
        <lane id=":1769589042_21_0" index="0" disallow="tram rail_urban rail rail_electric rail_fast ship" speed="3.65" length="2.34" shape="190.03,774.87 190.79,775.35 191.46,776.63"/>
    </edge>
    <edge id=":1769589073_0" function="internal">
        <lane id=":1769589073_0_0" index="0" disallow="tram rail_urban rail rail_electric rail_fast ship" speed="13.89" length="13.44" shape="185.57,845.94 185.79,849.17 186.66,851.92 187.47,854.98 187.51,859.13"/>
    </edge>
    <edge id=":1769589073_1" function="internal">
        <lane id=":1769589073_1_0" index="0" disallow="tram rail_urban rail rail_electric rail_fast ship" speed="7.20" length="9.51" shape="185.57,845.94 184.47,850.99 182.29,853.30 181.14,853.16"/>
    </edge>
    <edge id=":1769589073_2" function="internal">
        <lane id=":1769589073_2_0" index="0" disallow="tram rail_urban rail rail_electric rail_fast ship" speed="3.65" length="2.58" shape="185.57,845.94 184.67,847.06 183.84,847.39 183.63,847.26"/>
    </edge>
    <edge id=":1769589073_9" function="internal">
        <lane id=":1769589073_9_0" index="0" disallow="tram rail_urban rail rail_electric rail_fast ship" speed="7.20" length="7.47" shape="181.14,853.16 179.04,852.89 174.72,849.74"/>
    </edge>
    <edge id=":1769589073_10" function="internal">
        <lane id=":1769589073_10_0" index="0" disallow="tram rail_urban rail rail_electric rail_fast ship" speed="3.65" length="2.09" shape="183.63,847.26 183.07,846.92 182.38,845.66"/>
    </edge>
    <edge id=":1769589073_3" function="internal">
        <lane id=":1769589073_3_0" index="0" disallow="tram rail_urban rail rail_electric rail_fast ship" speed="5.43" length="8.98" shape="176.37,846.90 178.79,848.73 180.60,849.13 181.80,848.10 182.38,845.66"/>
    </edge>
    <edge id=":1769589073_4" function="internal">
        <lane id=":1769589073_4_0" index="0" disallow="tram rail_urban rail rail_electric rail_fast ship" speed="11.12" length="14.64" shape="176.37,846.90 180.03,850.58 182.57,853.78 184.01,856.51 184.33,858.76"/>
    </edge>
    <edge id=":1769589073_5" function="internal">
        <lane id=":1769589073_5_0" index="0" disallow="tram rail_urban rail rail_electric rail_fast ship" speed="3.68" length="4.79" shape="176.37,846.90 177.02,848.23 176.96,849.15 176.19,849.65 174.72,849.74"/>
    </edge>
    <edge id=":1769589073_6" function="internal">
        <lane id=":1769589073_6_0" index="0" disallow="tram rail_urban rail rail_electric rail_fast ship" speed="9.48" length="9.33" shape="178.25,858.06 178.10,855.72 177.47,853.55 176.34,851.56 174.72,849.74"/>
    </edge>
    <edge id=":1769589073_7" function="internal">
        <lane id=":1769589073_7_0" index="0" disallow="tram rail_urban rail rail_electric rail_fast ship" speed="13.89" length="13.19" shape="178.25,858.06 178.95,854.06 180.25,851.28 181.59,848.78 182.38,845.66"/>
    </edge>
    <edge id=":1769589073_8" function="internal">
        <lane id=":1769589073_8_0" index="0" disallow="tram rail_urban rail rail_electric rail_fast ship" speed="3.57" length="2.13" shape="181.44,858.43 182.29,857.43 183.05,857.15"/>
    </edge>
    <edge id=":1769589073_11" function="internal">
        <lane id=":1769589073_11_0" index="0" disallow="tram rail_urban rail rail_electric rail_fast ship" speed="3.57" length="2.13" shape="183.05,857.15 183.73,857.59 184.33,858.76"/>
    </edge>
    <edge id=":1832049011_0" function="internal">
        <lane id=":1832049011_0_0" index="0" disallow="tram rail_urban rail rail_electric rail_fast ship" speed="3.65" length="4.67" shape="662.93,1064.63 661.51,1064.37 660.83,1063.78 660.88,1062.89 661.68,1061.69"/>
    </edge>
    <edge id=":1864428537_0" function="internal">
        <lane id=":1864428537_0_0" index="0" disallow="tram rail_urban rail rail_electric rail_fast ship" speed="6.07" length="9.07" shape="197.22,553.75 199.77,553.42 201.40,552.34 202.13,550.52 201.94,547.95"/>
    </edge>
    <edge id=":1864428537_1" function="internal">
        <lane id=":1864428537_1_0" index="0" disallow="tram rail_urban rail rail_electric rail_fast ship" speed="13.89" length="11.60" shape="203.04,559.46 203.09,556.24 202.96,553.66 202.59,551.11 201.94,547.95"/>
    </edge>
    <edge id=":196761869_0" function="internal">
        <lane id=":196761869_0_0" index="0" disallow="tram rail_urban rail rail_electric rail_fast ship" speed="3.65" length="4.67" shape="1590.18,425.31 1591.54,424.83 1592.42,425.00 1592.82,425.80 1592.74,427.24"/>
    </edge>
    <edge id=":20246257_0" function="internal">
        <lane id=":20246257_0_0" index="0" disallow="tram rail_urban rail rail_electric rail_fast ship" speed="3.65" length="4.67" shape="242.65,88.51 243.55,87.39 244.39,87.06 245.15,87.53 245.83,88.80"/>
    </edge>
    <edge id=":2045820585_0" function="internal">
        <lane id=":2045820585_0_0" index="0" disallow="tram rail_urban rail rail_electric rail_fast ship" speed="13.89" length="8.34" shape="240.58,145.95 240.86,148.42 241.82,150.03 242.80,151.64 243.12,154.11"/>
        <lane id=":2045820585_0_1" index="1" disallow="tram rail_urban rail rail_electric rail_fast ship" speed="13.89" length="8.34" shape="240.58,145.95 239.93,153.88"/>
    </edge>
    <edge id=":2045820585_2" function="internal">
        <lane id=":2045820585_2_0" index="0" disallow="tram rail_urban rail rail_electric rail_fast ship" speed="13.89" length="8.84" shape="233.55,153.41 234.23,150.99 235.44,149.54 236.67,148.08 237.40,145.66"/>
    </edge>
    <edge id=":2055907447_0" function="internal">
        <lane id=":2055907447_0_0" index="0" disallow="tram rail_urban rail rail_electric rail_fast ship" speed="3.65" length="4.67" shape="65.03,656.40 64.66,655.00 64.90,654.14 65.73,653.81 67.16,654.01"/>
    </edge>
    <edge id=":21487183_0" function="internal">
        <lane id=":21487183_0_0" index="0" disallow="tram rail_urban rail rail_electric rail_fast ship" speed="11.11" length="0.54" shape="943.37,307.98 943.29,307.95 943.24,307.94 943.19,307.92 943.11,307.91"/>
        <lane id=":21487183_0_1" index="1" disallow="tram rail_urban rail rail_electric rail_fast ship" speed="11.11" length="0.54" shape="944.41,304.95 944.18,304.87 944.02,304.83 943.86,304.79 943.62,304.75"/>
    </edge>
    <edge id=":21487185_0" function="internal">
        <lane id=":21487185_0_0" index="0" disallow="tram rail_urban rail rail_electric rail_fast ship" speed="6.82" length="9.55" shape="1496.23,933.12 1495.09,930.93 1493.44,929.60 1491.26,929.11 1488.57,929.48"/>
    </edge>
    <edge id=":21487185_1" function="internal">
        <lane id=":21487185_1_0" index="0" disallow="tram rail_urban rail rail_electric rail_fast ship" speed="11.11" length="14.54" shape="1496.23,933.12 1491.17,919.50"/>
    </edge>
    <edge id=":21487185_2" function="internal">
        <lane id=":21487185_2_0" index="0" disallow="tram rail_urban rail rail_electric rail_fast ship" speed="8.15" length="5.56" shape="1496.23,933.12 1495.55,929.38 1495.91,927.66"/>
    </edge>
    <edge id=":21487185_3" function="internal">
        <lane id=":21487185_3_0" index="0" disallow="tram rail_urban rail rail_electric rail_fast ship" speed="3.65" length="2.34" shape="1496.23,933.12 1496.61,931.73 1497.24,931.09"/>
    </edge>
    <edge id=":21487185_16" function="internal">
        <lane id=":21487185_16_0" index="0" disallow="tram rail_urban rail rail_electric rail_fast ship" speed="8.15" length="8.56" shape="1495.91,927.66 1496.21,926.25 1498.22,923.71 1501.58,921.78"/>
    </edge>
    <edge id=":21487185_17" function="internal">
        <lane id=":21487185_17_0" index="0" disallow="tram rail_urban rail rail_electric rail_fast ship" speed="3.65" length="2.34" shape="1497.24,931.09 1498.12,931.22 1499.27,932.10"/>
    </edge>
    <edge id=":21487185_4" function="internal">
        <lane id=":21487185_4_0" index="0" disallow="tram rail_urban rail rail_electric rail_fast ship" speed="6.69" length="9.17" shape="1502.78,924.75 1500.58,926.01 1499.26,927.65 1498.83,929.68 1499.27,932.10"/>
    </edge>
    <edge id=":21487185_5" function="internal">