<?xml version="1.0" encoding="UTF-8"?>

<!-- generated on Sun May  2 22:09:07 2021 by Eclipse SUMO polyconvert Version 1.9.0
<configuration xmlns:xsi="http://www.w3.org/2001/XMLSchema-instance" xsi:noNamespaceSchemaLocation="http://sumo.dlr.de/xsd/polyconvertConfiguration.xsd">

    <input>
        <net-file value="osm.net.xml"/>
        <osm-files value="osm_bbox.osm.xml"/>
        <osm.keep-full-type value="true"/>
        <type-file value="C:\Program%20Files%20(x86)\Eclipse\Sumo\data\typemap\osmPolyconvert.typ.xml"/>
    </input>

    <output>
        <output-file value="osm.poly.xml"/>
    </output>

    <processing>
        <poi-layer-offset value="5"/>
    </processing>

    <report>
        <verbose value="true"/>
    </report>

</configuration>
-->

<additional xmlns:xsi="http://www.w3.org/2001/XMLSchema-instance" xsi:noNamespaceSchemaLocation="http://sumo.dlr.de/xsd/additional_file.xsd">
    <location netOffset="-390441.18,-5819523.68" convBoundary="-1453.01,-4142.82,3536.14,3735.51" origBoundary="13.365446,52.477280,13.436728,52.548335" projParameter="+proj=utm +zone=33 +ellps=WGS84 +datum=WGS84 +units=m +no_defs"/>

    <poly id="100950874" type="building.commercial" color="255,230,230" fill="1" layer="-1.00" shape="1207.141041,805.250460 1187.811240,796.709334 1183.666371,786.385624 1195.399327,766.018409 1208.754252,773.245171 1207.141041,805.250460"/>
    <poly id="100950876" type="building.commercial" color="255,230,230" fill="1" layer="-1.00" shape="1245.478570,747.017352 1232.575787,770.971144 1232.477971,813.803434 1232.546465,819.354591 1233.915520,823.252349 1235.871247,826.669772 1238.508481,829.905206 1243.503956,833.889668 1246.681180,835.455151 1266.493318,843.106755 1298.318451,775.503994 1245.478570,747.017352"/>
    <poly id="100950877" type="building.commercial" color="255,230,230" fill="1" layer="-1.00" shape="1277.328103,782.110499 1257.633627,823.985175 1251.381735,821.808902 1248.705302,820.176701 1247.101583,817.330124 1246.050629,811.856335 1247.759909,780.193899 1273.160749,780.277572 1277.328103,782.110499"/>
    <poly id="100950878" type="building.commercial" color="255,230,230" fill="1" layer="-1.00" shape="1216.113269,823.312344 1221.434207,809.485424 1222.852733,777.573471 1222.773155,773.669444 1221.230572,768.985468 1218.743956,764.889884 1214.791305,761.104925 1210.841743,759.300614 1189.351688,747.925223 1170.097291,782.056846 1168.324102,788.116126 1168.458157,793.866130 1170.149703,800.371721 1177.004201,807.998209 1216.113269,823.312344"/>
    <poly id="104393532" type="building.yes" color="255,230,230" fill="1" layer="-1.00" shape="88.255326,1038.544907 127.697626,1012.792916 129.072395,1005.974303 101.004003,999.168333 98.003716,1010.997370 113.260577,1014.595552 91.993098,1028.435296 86.545035,1036.424370 88.255326,1038.544907"/>
    <poly id="104786904" type="natural.grassland" color="140,196,107" fill="1" layer="-4.00" shape="567.437685,443.598625 572.774925,381.754815 553.378166,380.094473 548.034382,441.938459 567.437685,443.598625"/>
    <poly id="104786906" type="building.yes" color="255,230,230" fill="1" layer="-1.00" shape="581.629372,548.138626 644.953616,559.727064 637.948968,569.819827 634.261052,574.608840 629.787803,580.405684 627.881254,582.885043 613.782716,581.963478 602.403173,581.215143 603.003936,574.046702 624.511131,575.715908 625.841583,568.698156 585.982808,561.973569 584.465980,563.053319 582.616913,572.386047 583.647751,573.564895 583.446135,574.570870 582.599699,574.968044 582.378480,579.668833 578.891341,579.445982 575.587384,579.219057 575.988632,577.118130 579.847303,557.736927 581.456148,547.675119 581.629372,548.138626"/>
    <poly id="104786907" type="building.residential" color="255,230,230" fill="1" layer="-1.00" shape="610.402308,529.783263 609.127129,542.641803 569.437191,535.279311 572.535836,503.095970 586.163896,504.217062 587.359904,490.547959 600.667631,491.609455 599.530341,503.953058 591.712541,503.125502 590.427831,516.774322 598.323314,517.433232 597.862180,522.640101 597.397519,528.603728 610.402308,529.783263"/>
    <poly id="104786910" type="building.yes" color="255,230,230" fill="1" layer="-1.00" shape="688.115663,556.575247 700.787105,540.013849 684.691510,527.430191 685.397433,526.513159 684.616929,525.907362 687.691272,521.910964 688.402447,522.451537 689.345942,521.228779 693.302986,524.267684 694.061706,523.282715 710.843162,536.184989 718.102771,526.865606 728.156549,529.958222 707.986364,556.077928 700.498261,565.803002 688.115663,556.575247"/>
    <poly id="104786915" type="building.yes" color="255,230,230" fill="1" layer="-1.00" shape="685.628238,549.720280 672.100559,547.305878 670.983646,553.551060 684.486149,556.055039 685.628238,549.720280"/>
    <poly id="104786916" type="building.yes" color="255,230,230" fill="1" layer="-1.00" shape="713.921704,481.980628 709.081520,499.068969 747.162191,510.073699 751.963125,496.102009 749.297959,494.992818 746.743661,493.068849 744.041447,490.903359 740.341664,489.360928 726.030964,485.316881 713.921704,481.980628"/>
    <poly id="104991245" type="building.yes" color="255,230,230" fill="1" layer="-1.00" shape="593.054732,865.155900 605.857457,860.954106 607.721383,866.632248 608.159381,866.488972 613.590748,883.026227 614.419748,882.762976 618.562213,895.367467 617.693005,895.653867 623.132086,912.235471 609.399472,916.736104 606.610887,908.240983 606.018097,908.443342 603.105760,899.572636 603.698551,899.370277 600.101482,888.400554 599.555683,888.579613 596.679472,879.808256 597.292618,879.605443 595.865676,875.264026 594.504243,871.121451 594.955561,870.966749 593.054732,865.155900"/>
    <poly id="104991246" type="building.yes" color="255,230,230" fill="1" layer="-1.00" shape="496.219163,909.107071 494.936640,905.463507 510.156434,900.083731 511.450534,903.638019 496.219163,909.107071"/>
    <poly id="105187865" type="building.office" color="255,230,230" fill="1" layer="-1.00" shape="106.161677,429.081798 204.580463,436.586692 203.370748,448.075206 197.510158,503.900078 195.546774,525.409207 193.572079,547.018739 55.833420,535.597093 45.686941,534.755708 9.766162,531.775640 16.816095,455.170722 52.182147,457.907327 51.443949,466.180576 26.330159,464.149410 24.234713,489.433872 49.246357,491.456179 48.718171,497.888665 48.290294,503.039223 26.360357,501.315215 24.268986,526.477184 46.153061,528.280098 47.088189,516.975712 57.589245,517.887068 56.629014,528.980586 72.099028,530.203729 73.219784,516.269067 84.325161,517.189225 84.757372,511.927297 106.770884,513.749845 105.968446,523.404352 169.852556,528.675926 174.079168,477.817061 184.953181,478.709234 186.066341,465.331164 136.415089,461.232453 137.335062,450.150986 122.611883,448.944325 120.541653,473.860951 102.567760,472.382032 105.381384,438.513254 106.161677,429.081798"/>
    <poly id="105187865#1" type="landuse.commercial" color="209,209,204" fill="1" layer="-3.00" shape="106.161677,429.081798 204.580463,436.586692 203.370748,448.075206 197.510158,503.900078 195.546774,525.409207 193.572079,547.018739 55.833420,535.597093 45.686941,534.755708 9.766162,531.775640 16.816095,455.170722 52.182147,457.907327 51.443949,466.180576 26.330159,464.149410 24.234713,489.433872 49.246357,491.456179 48.718171,497.888665 48.290294,503.039223 26.360357,501.315215 24.268986,526.477184 46.153061,528.280098 47.088189,516.975712 57.589245,517.887068 56.629014,528.980586 72.099028,530.203729 73.219784,516.269067 84.325161,517.189225 84.757372,511.927297 106.770884,513.749845 105.968446,523.404352 169.852556,528.675926 174.079168,477.817061 184.953181,478.709234 186.066341,465.331164 136.415089,461.232453 137.335062,450.150986 122.611883,448.944325 120.541653,473.860951 102.567760,472.382032 105.381384,438.513254 106.161677,429.081798"/>
    <poly id="105187866" type="building.yes" color="255,230,230" fill="1" layer="-1.00" shape="120.541653,473.860951 118.102724,503.236890 107.718483,502.389560 106.770884,513.749845 84.757372,511.927297 85.298675,505.472268 75.750680,504.684207 76.557860,494.940566 77.311867,485.854648 101.283954,487.833692 102.567760,472.382032 120.541653,473.860951"/>
    <poly id="105187866#1" type="landuse.commercial" color="209,209,204" fill="1" layer="-3.00" shape="120.541653,473.860951 118.102724,503.236890 107.718483,502.389560 106.770884,513.749845 84.757372,511.927297 85.298675,505.472268 75.750680,504.684207 76.557860,494.940566 77.311867,485.854648 101.283954,487.833692 102.567760,472.382032 120.541653,473.860951"/>
    <poly id="105733615" type="building.yes" color="255,230,230" fill="1" layer="-1.00" shape="217.802482,932.085158 219.236913,913.948391 232.157248,914.728180 230.452163,933.816836 217.802482,932.085158"/>
    <poly id="105733616" type="building.residential" color="255,230,230" fill="1" layer="-1.00" shape="164.182976,930.311602 163.987871,932.819690 163.793014,935.338900 162.298043,935.261020 142.139727,933.452475 133.067209,932.642579 127.320035,932.114474 125.490406,931.943935 118.315103,931.291968 110.938065,927.384107 113.482495,922.486693 113.956560,922.743163 116.272472,917.338985 122.523016,920.648878 126.419723,920.984649 147.711034,922.767817 148.288973,915.521908 148.888831,908.041828 149.084427,905.555983 150.281157,905.651650 162.723838,906.619971 164.649445,906.832891 166.154439,907.055208 165.931946,909.552780 165.709951,912.072596 164.220762,911.950076 163.959155,915.127310 163.873965,916.175216 162.714394,930.199749 164.182976,930.311602"/>
    <poly id="105733620" type="building.commercial" color="255,230,230" fill="1" layer="-1.00" shape="160.229451,960.244379 130.961042,957.760328 133.067209,932.642579 142.139727,933.452475 162.298043,935.261020 161.260476,947.758336 160.229451,960.244379"/>
    <poly id="105733622" type="building.yes" color="255,230,230" fill="1" layer="-1.00" shape="223.079473,946.210766 238.577984,947.556155 239.553034,934.681917 232.868937,934.141221 232.619853,936.361191 230.275469,935.935040 230.452163,933.816836 217.802482,932.085158 216.926257,943.911194 215.468202,944.878476 217.565244,947.602444 222.906915,947.906027 223.079473,946.210766"/>
    <poly id="105733627" type="building.residential" color="255,230,230" fill="1" layer="-1.00" shape="104.630417,932.755103 104.544390,933.157623 103.312038,933.897340 102.408155,937.489533 100.681354,937.060768 87.931212,933.873941 87.726448,933.822880 90.472703,928.542600 90.726945,928.681577 93.089357,924.144307 98.178937,914.382830 113.482495,922.486693 110.938065,927.384107 107.743462,925.663950 105.993283,926.315091 103.446874,931.123531 104.377668,932.682859 104.630417,932.755103"/>
    <poly id="105733628" type="building.residential" color="255,230,230" fill="1" layer="-1.00" shape="158.330590,982.798113 129.069594,980.336167 130.635201,961.706811 130.961042,957.760328 160.229451,960.244379 160.121849,961.504212 160.971836,961.574244 160.707005,964.606891 159.863802,964.536707 159.279893,971.515685 158.684407,978.583942 159.527607,978.654126 159.263027,981.697896 158.426611,981.627560 158.330590,982.798113"/>
    <poly id="105733634" type="building.hotel" color="255,230,230" fill="1" layer="-1.00" shape="252.884342,878.768188 247.503713,878.242886 245.789150,902.383711 233.254814,901.261438 223.164398,900.462972 201.206372,898.916915 199.580803,896.638659 202.344723,863.572231 204.309283,861.881463 244.224002,865.107542 254.195350,866.042244 254.091359,866.856886 252.884342,878.768188"/>
    <poly id="105733636" type="building.yes" color="255,230,230" fill="1" layer="-1.00" shape="128.549493,986.523658 129.069594,980.336167 158.330590,982.798113 157.959329,987.446653 157.588069,992.095193 156.160903,993.228719 145.521850,990.651118 128.549493,986.523658"/>
    <poly id="105733640" type="building.residential" color="255,230,230" fill="1" layer="-1.00" shape="111.366624,913.153340 111.766697,914.958212 116.272472,917.338985 113.956560,922.743163 113.544546,922.529817 98.178937,914.382830 97.911126,914.244156 102.265699,905.912330 106.626823,897.569234 106.887849,897.708059 117.790156,903.551242 113.635670,911.422346 112.161218,911.655598 111.366624,913.153340"/>
    <poly id="105733641" type="building.yes" color="255,230,230" fill="1" layer="-1.00" shape="274.253778,868.231829 269.224095,867.921225 254.091359,866.856886 252.884342,878.768188 252.781673,879.337991 274.536900,881.222637 275.475086,870.341088 274.253778,868.231829"/>
    <poly id="105733647" type="building.yes" color="255,230,230" fill="1" layer="-1.00" shape="256.522204,949.002789 238.577984,947.556155 239.553034,934.681917 257.791993,936.255510 256.522204,949.002789"/>
    <poly id="105733649" type="building.office" color="255,230,230" fill="1" layer="-1.00" shape="140.765688,832.466031 141.026120,831.970594 141.417440,831.561254 141.871558,831.228405 142.382185,830.994442 142.928970,830.859820 143.491559,830.824995 144.049850,830.901543 144.583240,831.078796 145.071377,831.357210 155.559311,841.738705 168.427828,854.470623 168.639799,854.844229 168.784674,855.252717 168.862205,855.684965 166.405863,885.495265 165.102359,901.281186 164.649445,906.832891 162.723838,906.619971 150.281157,905.651650 149.084427,905.555983 149.248116,904.072344 129.186278,893.526456 132.041148,888.243775 118.736739,879.394129 117.055566,878.274421 116.848811,878.134382 124.575955,863.384424 140.765688,832.466031"/>
    <poly id="105733654" type="building.residential" color="255,230,230" fill="1" layer="-1.00" shape="114.049466,883.471469 116.848811,878.134382 117.055566,878.274421 118.736739,879.394129 132.041148,888.243775 129.186278,893.526456 125.559788,891.615639 123.761360,892.234469 117.790156,903.551242 106.887849,897.708059 111.971697,887.991237 114.282860,883.588657 114.049466,883.471469"/>
    <poly id="105733655" type="building.yes" color="255,230,230" fill="1" layer="-1.00" shape="219.236913,913.948391 220.055585,903.191899 222.831433,903.486007 223.164398,900.462972 233.254814,901.261438 232.157248,914.728180 219.236913,913.948391"/>
    <poly id="105733781" type="building.apartments" color="255,230,230" fill="1" layer="-1.00" shape="406.227381,982.006516 406.661734,988.094796 400.577609,987.974481 400.819820,982.093673 389.026993,981.644396 389.496373,967.991409 405.132685,968.521929 406.227381,982.006516"/>
    <poly id="105733782" type="building.apartments" color="255,230,230" fill="1" layer="-1.00" shape="389.026993,981.644396 388.706860,987.682729 386.697570,987.671887 386.985319,995.098755 387.017554,996.544633 381.040990,996.377434 381.220793,986.480926 382.121820,986.405199 382.633965,984.413055 381.187123,982.230907 370.739749,981.851825 369.850026,983.652092 370.007090,986.130060 369.722411,986.147535 369.737045,996.240007 363.980541,996.201453 364.598657,984.047380 365.494749,967.313637 389.496373,967.991409 389.026993,981.644396"/>
    <poly id="105733783" type="building.apartments" color="255,230,230" fill="1" layer="-1.00" shape="316.006820,1009.545285 327.351599,1010.905721 329.279469,1002.094109 332.680531,1002.730417 332.963737,1000.821267 329.704393,1000.148415 330.560529,996.234632 319.731794,994.884932 316.006820,1009.545285"/>
    <poly id="105733786" type="building.apartments" color="255,230,230" fill="1" layer="-1.00" shape="433.376604,1020.682086 431.987986,984.258797 430.485170,984.436948 430.411252,982.947488 420.468380,982.668334 420.591837,984.857733 417.151378,984.889903 418.531397,1016.049996 419.989195,1015.984122 420.225086,1021.086463 433.376604,1020.682086"/>
    <poly id="105733787" type="building.apartments" color="255,230,230" fill="1" layer="-1.00" shape="430.411252,982.947488 431.179490,969.298977 405.132685,968.521929 406.227381,982.006516 420.468380,982.668334 430.411252,982.947488"/>
    <poly id="105733790" type="building.dormitory" color="255,230,230" fill="1" layer="-1.00" shape="471.923727,990.312648 476.670222,1003.816044 461.141647,1006.287369 453.372780,1007.317291 452.227876,1002.235203 462.679693,999.465228 460.660693,993.534654 471.923727,990.312648"/>
    <poly id="105733792" type="building.apartments" color="255,230,230" fill="1" layer="-1.00" shape="458.069240,983.844557 430.411252,982.947488 431.179490,969.298977 464.941554,970.293742 471.923727,990.312648 460.660693,993.534654 458.069240,983.844557"/>
    <poly id="105733795" type="building.apartments" color="255,230,230" fill="1" layer="-1.00" shape="476.670222,1003.816044 481.495776,1017.517981 468.899292,1017.854225 462.204315,1018.036763 461.141647,1006.287369 476.670222,1003.816044"/>
    <poly id="105733796" type="building.yes" color="255,230,230" fill="1" layer="-1.00" shape="387.836569,1021.407843 387.017554,996.544633 386.985319,995.098755 394.202107,995.182675 394.637357,1021.100441 387.836569,1021.407843"/>
    <poly id="105733797" type="building.apartments" color="255,230,230" fill="1" layer="-1.00" shape="319.731794,994.884932 325.087781,967.536034 327.984807,965.657600 365.494749,967.313637 364.598657,984.047380 344.167204,983.367999 343.892716,989.015851 342.155507,990.857280 341.467212,995.601892 341.871100,996.060246 341.589130,998.025006 332.613488,997.290479 332.807169,996.540605 330.560529,996.234632 319.731794,994.884932"/>
    <poly id="109089263" type="building.residential" color="255,230,230" fill="1" layer="-1.00" shape="956.346169,972.846303 958.066789,990.445427 959.807055,990.262173 960.956835,1003.545312 960.294231,1003.660156 958.973694,1010.833377 964.604090,1011.921422 972.687615,975.187922 972.179315,974.609430 972.997721,972.031929 970.670203,972.361731 970.135137,971.494514 956.346169,972.846303"/>
    <poly id="109089264" type="building.residential" color="255,230,230" fill="1" layer="-1.00" shape="938.439520,1005.202010 944.077945,1005.121453 944.067337,1004.643200 949.455497,1004.601583 949.465364,1005.046469 954.792962,1005.028457 953.146833,987.116107 951.899451,986.264691 938.973567,987.052134 937.615547,988.250658 938.439520,1005.202010"/>
    <poly id="11548677" type="natural.water" color="181,209,209" fill="0" layer="-4.00" shape="1718.104310,-212.125706 1688.224228,-229.182884 1555.522724,-299.022071 1547.203630,-306.527795 1537.604785,-313.571314 1534.900386,-315.525768 1518.508145,-327.382336 1476.697948,-355.836832 1423.618394,-382.395373 1411.960384,-387.056416 1388.915728,-396.384412 1381.903587,-398.488476 1377.281809,-399.643834 1361.711643,-403.450567 1296.341273,-411.320179 1230.016679,-407.372597 1225.750288,-406.577218 1223.218969,-405.608781 1220.163720,-403.771933 1217.215527,-401.392199 1215.113501,-399.431769 1213.520170,-397.493716 1212.262689,-395.718876 1193.827387,-360.236997 1186.180947,-345.590870 1072.232581,-149.693536 1069.194699,-144.629968 1066.698813,-139.923357 1013.444792,-33.721343 998.850052,7.674063 960.889676,103.589770 952.847216,119.903115 874.696850,271.280709 869.975184,308.429323 841.958416,414.162631 821.677532,469.282873 822.465941,470.856620 822.541725,473.047079 809.386732,494.147821 807.603972,493.953727 798.522460,510.190301 744.489363,549.558284 662.004645,648.858642 651.030655,662.066372 638.756812,676.949930 626.635478,691.362768 567.915139,762.740066 570.578071,764.973097 561.017460,776.703000 558.321599,774.515218 556.049060,778.538372 550.658603,780.928398"/>
    <poly id="11548679" type="natural.water" color="181,209,209" fill="0" layer="-4.00" shape="1392.477407,92.960770 1373.721658,107.751808 1338.866543,151.240533 1293.553036,216.002945 1285.687913,228.094441 1275.702343,243.448701 1269.144384,253.252430 1217.353377,339.646219 1210.855743,351.551817 1209.522757,350.824628 1207.591708,354.361411 1208.931479,355.088449 1190.560642,388.432560 1190.934367,389.370137 1180.142107,408.425700 1178.873819,409.088039 1174.946225,408.596317 1171.845598,408.664933 1171.105921,408.981747 1156.906769,432.663951 1157.170405,434.761231 1157.789800,436.984170 1159.453084,438.527475 1161.302093,441.101537 1160.254281,443.750841 1156.694832,450.383777 1155.603363,452.900517 1154.161771,456.159428 1141.611080,478.558908 1103.776407,546.062058 1080.626401,588.815159 1079.931066,588.374328 1075.605269,596.559917 1076.160725,596.814676 1060.676674,624.342433 1060.389247,624.849543 1059.800594,625.240923 1059.238470,625.297887 1058.760356,625.163820 1057.797720,624.606511 1058.428822,623.680066 1055.246110,621.569567 1054.320058,622.969908 1039.050111,645.140617 1044.843176,648.650982 1046.690695,651.158268 1046.304272,654.549624 1035.195662,675.203814 1024.588535,691.529405 1011.019263,703.747821 1000.499510,709.923148 931.818431,737.306681 930.865175,735.335981 819.952372,781.673696 797.399920,793.101849 746.375864,811.038048 708.920080,822.241408 621.173506,840.973068 617.505299,841.755712 602.369570,845.130297 532.662970,857.375396 466.131673,864.676845 452.201760,866.111080 419.743860,867.323972 368.445722,864.661849 274.040651,858.377464 197.986140,851.673923 196.346908,849.696420 171.542964,833.792567 99.527535,761.847697 14.477557,682.016507 -37.821413,636.862015 -81.464636,613.936581 -164.378575,576.067589 -187.799236,565.364502 -246.247016,539.778906 -257.665003,534.304143 -323.671032,529.185882 -358.556305,527.298043 -388.992657,525.232680 -417.959483,526.339291 -427.513374,527.711119 -431.918203,528.644621 -441.538264,530.696755 -454.484793,534.848875 -465.888950,539.066530 -478.925863,544.934418 -491.302715,551.477429 -502.623142,557.907709 -513.440018,564.693914 -524.113458,572.122329 -533.381501,579.864136 -541.016594,586.567755 -545.706768,591.714061 -548.605623,595.017406 -553.862592,601.823369 -557.643365,606.960369 -562.983698,615.793466 -566.549102,623.262456 -569.281161,629.755724 -571.725953,638.156506 -573.868626,650.634376 -575.910768,667.883787 -578.251780,686.330590 -580.450360,705.375090 -583.243463,727.259411 -585.110187,737.516662 -587.366048,747.070492 -593.689483,767.109126 -599.922284,783.328916 -607.814463,802.724069 -619.067064,822.695590 -623.803546,829.389782 -627.044967,833.145999 -631.786269,837.815059 -637.606603,843.699073 -661.500848,863.821654 -696.245252,825.890331 -681.673687,811.652594 -673.597298,803.469937 -668.152416,795.379909 -662.939533,788.441267 -652.418127,770.366689 -650.843189,767.660585 -636.089640,739.475832 -631.123643,726.990039 -627.886042,700.132708 -625.255636,680.377417 -618.576422,626.368866 -604.340823,590.217298 -594.476361,574.895074 -583.650646,561.565375 -579.956435,557.709993 -562.951124,541.771019 -531.700218,520.582281 -518.759535,512.546508 -506.551732,506.029485 -498.026466,501.776280 -479.920347,494.025140 -462.329961,487.487449 -442.044557,481.256507 -427.769699,477.909175 -414.883768,475.282990 -396.886753,472.942689 -379.479624,471.539296 -366.111755,471.027818 -353.627233,471.081458 -351.816291,473.132829 -329.705735,475.630042 -292.593136,481.474118 -268.845463,486.449747 -245.384554,492.867393 -218.205319,502.551245 -190.716816,513.318828 -143.320551,536.148141 -109.201358,551.730605 -75.117058,567.280698 -40.625290,583.456180 -9.201162,599.967591 -8.131866,598.307898 98.679656,697.492975 97.439320,698.789254 104.055528,705.084308 110.713170,711.411827 111.946722,710.115703 152.054869,747.765806 150.729319,749.197508 155.863069,753.856595 160.929961,758.561690 162.248727,757.130143 170.744379,764.918918 206.545925,793.040194 224.588159,800.371085 226.385817,800.931846 273.731292,807.408486 273.600655,810.070915 276.719568,810.223868 276.850206,807.561438 316.860121,809.561954 338.864329,810.729170 365.269804,812.332473 398.458483,812.827732 432.582682,811.444048 451.852657,809.924167 494.094758,804.576651 514.508839,795.909838 550.658603,780.928398"/>
    <poly id="120456813" type="landuse.commercial" color="209,209,204" fill="1" layer="-3.00" shape="361.654043,791.114740 365.573915,735.255469 296.676626,727.545054 296.477876,731.110344 296.073344,738.229952 295.867562,741.784270 295.247907,751.735107 296.406198,751.931817 295.265286,767.725185 294.317918,779.719698 293.549313,779.647826 293.030859,788.962128 324.778067,789.945290 349.460321,790.362907 361.654043,791.114740"/>
    <poly id="120456814" type="amenity.university" color="237,199,199" fill="1" layer="-1.00" shape="377.261454,561.670395 377.394643,562.468617 414.473456,565.659236 421.091418,566.257308 448.322372,568.599389 452.760940,514.331076 471.031070,515.715650 479.639951,516.402990 482.566497,516.749534 492.282503,517.467877 491.698819,523.567701 490.351246,535.904895 489.913059,541.222544 489.894590,541.612423 492.051986,541.864824 491.337365,547.266523 491.302602,547.534361 490.119053,559.311520 478.705107,558.241533 477.521208,571.220491 516.275888,574.385677 517.405586,574.516312 522.790293,515.453262 523.161813,510.493187 524.191046,500.622303 526.771967,465.624028 625.883167,474.434979 638.572541,388.169494 646.164408,302.206588 570.777199,295.637932 495.240232,289.062636 490.644436,340.574710 481.234535,481.326497 474.098606,480.639728 456.210729,480.270367 422.467289,477.216512 400.629190,475.344124 399.846453,484.386101 392.324532,483.741437 387.458521,540.122480 387.387676,540.902996 385.911952,540.780104 365.991830,539.065424 365.349616,546.490766 373.347606,547.180411 373.465624,545.775694 377.750315,546.147535 377.626008,547.574647 378.442139,547.645475 377.271393,561.202811 377.261454,561.670395"/>
    <poly id="121673258" type="landuse.construction" color="194,194,130" fill="1" layer="-3.00" shape="1047.407599,146.728016 987.517710,105.892654 982.573340,103.643198 979.048540,109.084838 990.747461,118.072559 989.706223,119.486589 990.223737,119.864585 985.280954,126.261241 987.343238,127.728883 986.019739,129.271574 983.856740,130.610321 981.370166,131.132799 979.479462,130.974414 977.693503,130.335220 976.128870,129.268271 973.770190,132.191481 951.999712,163.119283 953.471202,163.965737 954.344865,164.792064 955.066170,165.788683 955.778829,167.620065 955.901680,169.486779 955.658636,170.771843 955.162572,171.973496 954.074847,173.433075 952.611751,172.352755 946.981171,180.789930 963.617248,192.628053 941.009807,229.572257 919.878732,273.994972 920.117658,283.848739 938.940000,285.311854 936.042079,289.014850 949.252771,291.804240 961.839221,295.831542 974.864314,300.661468 998.490893,315.215647 1019.289478,326.527705 1028.899442,315.710145 1048.613610,288.188761 981.579241,245.909431 1047.407599,146.728016"/>
    <poly id="121717655" type="building.yes" color="255,230,230" fill="1" layer="-1.00" shape="788.779914,497.576506 796.607833,485.106636 763.203148,464.283224 758.910823,476.707989 779.285393,489.408273 778.242702,491.056066 788.779914,497.576506"/>
    <poly id="121717767" type="leisure.park" color="207,245,201" fill="1" layer="-2.00" shape="886.979378,584.361932 911.812811,603.184144 913.482651,601.043980 912.732903,600.292806 912.246762,599.491275 911.992773,598.751359 911.894335,597.985737 911.933066,597.283838 912.094165,596.590351 912.450287,595.814645 912.964426,595.124455 913.597109,594.576293 914.327983,594.170613 915.082911,593.931313 915.875216,593.846971 917.162666,594.052091 917.868871,594.370254 918.468497,594.779802 920.607706,592.072848 923.143256,594.075213 923.998472,593.154905 924.842463,592.646569 925.793155,592.358418 926.660830,592.305789 927.519377,592.453660 928.430349,592.822920 929.217102,593.406360 929.789219,594.105838 930.194191,594.920299 930.394887,595.705909 930.426465,596.517524 930.301506,597.310357 930.012486,598.051191 929.347483,598.978406 932.580100,601.499440 930.612845,604.002278 931.558352,605.316620 931.769904,605.979585 931.860075,606.678625 931.822327,607.425013 931.648150,608.141044 931.350373,608.793051 930.949349,609.380582 930.364650,609.949932 929.675225,610.388073 928.867503,610.695307 928.014880,610.814368 927.301278,610.774558 926.598283,610.600982 925.699650,610.175811 923.864884,612.531054 942.128617,626.202398 900.013314,681.706489 911.292176,690.169181 976.839789,604.089917 905.909657,558.003435 886.979378,584.361932"/>
    <poly id="125513279" type="building.industrial" color="255,230,230" fill="1" layer="-1.00" shape="1357.168194,190.272342 1349.838301,184.503270 1346.191813,181.379087 1349.438315,176.845206 1349.093656,176.608013 1350.325360,174.900538 1380.150990,195.996136 1378.658934,198.210094 1375.122724,203.150948 1357.666299,190.695314 1357.168194,190.272342"/>
    <poly id="125513281" type="building.residential" color="255,230,230" fill="1" layer="-1.00" shape="1325.354824,204.261551 1316.909709,198.405895 1314.993238,197.079554 1321.912942,187.356920 1321.848927,187.224804 1323.995478,184.217434 1325.457030,182.159919 1326.655291,180.475432 1326.785190,180.517072 1333.737884,170.749217 1346.191813,181.379087 1349.838301,184.503270 1357.168194,190.272342 1357.666299,190.695314 1375.122724,203.150948 1378.658934,198.210094 1383.148943,201.415819 1380.547954,205.056343 1384.210489,207.679455 1386.811479,204.038933 1397.370043,211.539427 1390.031127,221.649546 1387.042603,225.877259 1382.252877,232.459290 1370.532343,223.983013 1370.438335,224.029600 1367.566152,221.845271 1367.807370,221.394840 1371.548243,216.193525 1372.065834,215.347525 1373.625732,213.132065 1374.618824,211.685801 1371.970634,209.808094 1363.090912,203.327688 1358.559444,200.089515 1354.952947,204.920661 1353.129026,207.475786 1349.191985,213.015276 1342.647593,208.386130 1342.364738,208.180955 1346.301775,202.641460 1348.125696,200.086332 1351.809432,195.064306 1345.788696,190.479225 1346.276934,189.533721 1339.233910,184.459364 1335.732390,189.432864 1334.270837,191.490376 1327.605260,201.040463 1325.354824,204.261551"/>